data_BG_Cr1_Triazine_SLAB_SPIN2_Bilayer.out
_cell_length_a 14.70518845
_cell_length_b 14.70518845
_cell_length_c 40
_cell_angle_alpha 90.000000
_cell_angle_beta 90.000000
_cell_angle_gamma 120.000000
loop_
_atom_site_label
_atom_site_fract_x
_atom_site_fract_y
_atom_site_fract_z
C -4.485445731544E-01 -3.879066234094E-01 0.040879840052125
C 3.879066234094E-01 -6.063794974502E-02 0.040879840052125
C 6.063794974502E-02 4.485445731544E-01 0.040879840052125
C 3.879066234094E-01 4.485445731544E-01 -0.040879840052125
C -4.485445731544E-01 -6.063794974502E-02 -0.040879840052125
C 6.063794974502E-02 -3.879066234094E-01 -0.040879840052125
C 6.063794974502E-02 -3.879066234094E-01 0.040879840052125
C -4.485445731544E-01 -6.063794974502E-02 0.040879840052125
C 3.879066234094E-01 4.485445731544E-01 0.040879840052125
C -4.485445731544E-01 -3.879066234094E-01 -0.040879840052125
C 6.063794974502E-02 4.485445731544E-01 -0.040879840052125
C 3.879066234094E-01 -6.063794974502E-02 -0.040879840052125
C -3.949610367200E-01 4.692758016663E-02 0.042418774363825004
C -4.692758016663E-02 -4.418886168867E-01 0.042418774363825004
C 4.418886168867E-01 3.949610367200E-01 0.042418774363825004
C -4.692758016663E-02 3.949610367200E-01 -0.042418774363825004
C -3.949610367200E-01 -4.418886168867E-01 -0.042418774363825004
C 4.418886168867E-01 4.692758016663E-02 -0.042418774363825004
C 4.418886168867E-01 4.692758016663E-02 0.042418774363825004
C -3.949610367200E-01 -4.418886168867E-01 0.042418774363825004
C -4.692758016663E-02 3.949610367200E-01 0.042418774363825004
C -3.949610367200E-01 4.692758016663E-02 -0.042418774363825004
C 4.418886168867E-01 3.949610367200E-01 -0.042418774363825004
C -4.692758016663E-02 -4.418886168867E-01 -0.042418774363825004
H 1.046786509762E-01 4.077105255235E-01 0.0400325655027
H -4.077105255235E-01 -3.030318745474E-01 0.0400325655027
H 3.030318745474E-01 -1.046786509762E-01 0.0400325655027
H -4.077105255235E-01 -1.046786509762E-01 -0.0400325655027
H 1.046786509762E-01 -3.030318745474E-01 -0.0400325655027
H 3.030318745474E-01 4.077105255235E-01 -0.0400325655027
H 3.030318745474E-01 4.077105255235E-01 0.0400325655027
H 1.046786509762E-01 -3.030318745474E-01 0.0400325655027
H -4.077105255235E-01 -1.046786509762E-01 0.0400325655027
H 1.046786509762E-01 4.077105255235E-01 -0.0400325655027
H 3.030318745474E-01 -1.046786509762E-01 -0.0400325655027
H -4.077105255235E-01 -3.030318745474E-01 -0.0400325655027
H -3.098065455440E-01 -3.992145212607E-01 0.04291419275515
H 3.992145212607E-01 8.940797571671E-02 0.04291419275515
H -8.940797571671E-02 3.098065455440E-01 0.04291419275515
H 3.992145212607E-01 3.098065455440E-01 -0.04291419275515
H -3.098065455440E-01 8.940797571671E-02 -0.04291419275515
H -8.940797571671E-02 -3.992145212607E-01 -0.04291419275515
H -8.940797571671E-02 -3.992145212607E-01 0.04291419275515
H -3.098065455440E-01 8.940797571671E-02 0.04291419275515
H 3.992145212607E-01 3.098065455440E-01 0.04291419275515
H -3.098065455440E-01 -3.992145212607E-01 -0.04291419275515
H -8.940797571671E-02 3.098065455440E-01 -0.04291419275515
H 3.992145212607E-01 8.940797571671E-02 -0.04291419275515
C 3.846990343751E-01 -3.846990343751E-01 0.0405932848157
C 3.846990343751E-01 -2.306019312497E-01 0.0405932848157
C 2.306019312497E-01 -3.846990343751E-01 0.0405932848157
C 3.846990343751E-01 -3.846990343751E-01 -0.0405932848157
C 3.846990343751E-01 -2.306019312497E-01 -0.0405932848157
C 2.306019312497E-01 -3.846990343751E-01 -0.0405932848157
C 4.421298049156E-01 -4.421298049156E-01 0.040645023128975
C 4.421298049156E-01 -1.157403901688E-01 0.040645023128975
C 1.157403901688E-01 -4.421298049156E-01 0.040645023128975
C 4.421298049156E-01 -4.421298049156E-01 -0.040645023128975
C 4.421298049156E-01 -1.157403901688E-01 -0.040645023128975
C 1.157403901688E-01 -4.421298049156E-01 -0.040645023128975
B -3.894159047739E-01 3.894159047739E-01 0.04762629140545
B -3.894159047739E-01 2.211681904522E-01 0.04762629140545
B -2.211681904522E-01 3.894159047739E-01 0.04762629140545
B -3.894159047739E-01 3.894159047739E-01 -0.04762629140545
B -3.894159047739E-01 2.211681904522E-01 -0.04762629140545
B -2.211681904522E-01 3.894159047739E-01 -0.04762629140545
N 2.798126154173E-01 -2.798126154173E-01 0.040743872563825
N 2.798126154173E-01 -4.403747691654E-01 0.040743872563825
N 4.403747691654E-01 -2.798126154173E-01 0.040743872563825
N 2.798126154173E-01 -2.798126154173E-01 -0.040743872563825
N 2.798126154173E-01 -4.403747691654E-01 -0.040743872563825
N 4.403747691654E-01 -2.798126154173E-01 -0.040743872563825
C -4.485117954676E-01 4.485117954676E-01 0.04387929430465
C -4.485117954676E-01 1.029764090648E-01 0.04387929430465
C -1.029764090648E-01 4.485117954676E-01 0.04387929430465
C -4.485117954676E-01 4.485117954676E-01 -0.04387929430465
C -4.485117954676E-01 1.029764090648E-01 -0.04387929430465
C -1.029764090648E-01 4.485117954676E-01 -0.04387929430465
O -2.794999188643E-01 2.794999188643E-01 0.04749064353345
O -2.794999188643E-01 4.410001622714E-01 0.04749064353345
O -4.410001622714E-01 2.794999188643E-01 0.04749064353345
O -2.794999188643E-01 2.794999188643E-01 -0.04749064353345
O -2.794999188643E-01 4.410001622714E-01 -0.04749064353345
O -4.410001622714E-01 2.794999188643E-01 -0.04749064353345
Cr -3.333333333333E-01 3.333333333333E-01 0.0
