data_ZnFeO4_sp_no-opt_bulk.out
_cell_length_a 5.84310600
_cell_length_b 5.84310600
_cell_length_c 5.84310600
_cell_angle_alpha 60.000000
_cell_angle_beta 60.000000
_cell_angle_gamma 60.000000
loop_
_atom_site_label
_atom_site_fract_x
_atom_site_fract_y
_atom_site_fract_z
Zn 1.250000000000E-01 1.250000000000E-01 1.250000000000E-01
Zn -1.250000000000E-01 -1.250000000000E-01 -1.250000000000E-01
Fe -5.000000000000E-01 -5.000000000000E-01 -5.000000000000E-01
Fe -5.000000000000E-01 -5.000000000000E-01 0.000000000000E+00
Fe 0.000000000000E+00 -5.000000000000E-01 -5.000000000000E-01
Fe -5.000000000000E-01 5.551115123126E-17 -5.000000000000E-01
O 2.490000000000E-01 2.490000000000E-01 2.490000000000E-01
O 2.490000000000E-01 2.490000000000E-01 -2.470000000000E-01
O -2.470000000000E-01 2.490000000000E-01 2.490000000000E-01
O 2.490000000000E-01 -2.470000000000E-01 2.490000000000E-01
O -2.490000000000E-01 -2.490000000000E-01 -2.490000000000E-01
O -2.490000000000E-01 -2.490000000000E-01 2.470000000000E-01
O -2.490000000000E-01 2.470000000000E-01 -2.490000000000E-01
O 2.470000000000E-01 -2.490000000000E-01 -2.490000000000E-01
