data_substitutions_hBN_O_ads_bridge_185_SLAB_SP_DZ.out
_cell_length_a 14.95269600
_cell_length_b 14.95233400
_cell_length_c 40
_cell_angle_alpha 90.000000
_cell_angle_beta 90.000000
_cell_angle_gamma 119.999100
loop_
_atom_site_label
_atom_site_fract_x
_atom_site_fract_y
_atom_site_fract_z
B -3.861040000000E-01 -4.475990000000E-01 0.287555625
N -4.397470000000E-01 -3.876820000000E-01 0.283427225
B -3.861040000000E-01 -2.741220000000E-01 0.28754955
N -4.444500000000E-01 -2.230560000000E-01 0.28794895
B -3.890400000000E-01 -1.118340000000E-01 0.290238475
N -4.446280000000E-01 -5.665900000000E-02 0.29109077499999997
B -3.890770000000E-01 5.441200000000E-02 0.291859375
N -4.446490000000E-01 1.098680000000E-01 0.292022425
B -3.890770000000E-01 2.208940000000E-01 0.291860075
N -4.446270000000E-01 2.764150000000E-01 0.291091575
B -3.890410000000E-01 3.871790000000E-01 0.29024315
N -4.444510000000E-01 4.429910000000E-01 0.28796005
B -2.215020000000E-01 -4.460970000000E-01 0.2922885
N -2.770630000000E-01 -3.902330000000E-01 0.29136685
B -2.217460000000E-01 -2.786810000000E-01 0.291858525
N -2.770630000000E-01 -2.224470000000E-01 0.291364275
B -2.215010000000E-01 -1.110210000000E-01 0.29228502500000003
N -2.778930000000E-01 -5.658300000000E-02 0.291711275
B -2.222620000000E-01 5.466600000000E-02 0.292483475
N -2.779680000000E-01 1.099310000000E-01 0.292343025
B -2.223170000000E-01 2.210330000000E-01 0.2926463
N -2.779680000000E-01 2.764840000000E-01 0.2923448
B -2.222630000000E-01 3.874560000000E-01 0.292486075
N -2.778940000000E-01 4.430740000000E-01 0.29171485
B -5.541700000000E-02 -4.458040000000E-01 0.293421325
N -1.109300000000E-01 -3.901400000000E-01 0.29338385
B -5.547000000000E-02 -2.790280000000E-01 0.29347297499999997
N -1.112970000000E-01 -2.234570000000E-01 0.29319907500000003
B -5.546900000000E-02 -1.120580000000E-01 0.29347255
N -1.109300000000E-01 -5.640700000000E-02 0.293382325
B -5.541700000000E-02 5.477000000000E-02 0.293420075
N -1.112930000000E-01 1.099410000000E-01 0.2932182
B -5.560600000000E-02 2.211410000000E-01 0.293151225
N -1.113360000000E-01 2.765230000000E-01 0.29307862500000004
B -5.560600000000E-02 3.876360000000E-01 0.29315235
N -1.112930000000E-01 4.431500000000E-01 0.29322162500000004
B 1.109290000000E-01 -4.457120000000E-01 0.29292005
N 5.539500000000E-02 -3.900900000000E-01 0.293501375
B 1.110290000000E-01 -2.790220000000E-01 0.29338502499999997
N 5.537400000000E-02 -2.234370000000E-01 0.293694425
B 1.110320000000E-01 -1.122920000000E-01 0.29352564999999997
N 5.537400000000E-02 -5.680600000000E-02 0.2936952
B 1.110290000000E-01 5.443400000000E-02 0.293384
N 5.539400000000E-02 1.098670000000E-01 0.293500475
B 1.109280000000E-01 2.210220000000E-01 0.292916575
N 5.526100000000E-02 2.764650000000E-01 0.29295275
B 1.110450000000E-01 3.877140000000E-01 0.29223555
N 5.526100000000E-02 4.431780000000E-01 0.29295325
B 2.772380000000E-01 -4.455820000000E-01 0.28997785
N 2.216720000000E-01 -3.900270000000E-01 0.2920702
B 2.774640000000E-01 -2.791040000000E-01 0.2917896
N 2.220050000000E-01 -2.233850000000E-01 0.29282240000000004
B 2.775680000000E-01 -1.123720000000E-01 0.292682275
N 2.220220000000E-01 -5.679700000000E-02 0.293134725
B 2.775680000000E-01 5.432300000000E-02 0.292681475
N 2.220040000000E-01 1.097720000000E-01 0.292819775
B 2.774630000000E-01 2.209510000000E-01 0.2917868
N 2.216710000000E-01 2.760810000000E-01 0.29206425
B 2.772380000000E-01 3.872030000000E-01 0.289973925
N 2.215560000000E-01 4.429690000000E-01 0.290595275
B 4.391920000000E-01 -4.482090000000E-01 0.2789254
O 3.869760000000E-01 -3.899640000000E-01 0.28696025000000003
B 4.429850000000E-01 -2.800660000000E-01 0.2880875
N 3.886450000000E-01 -2.234290000000E-01 0.29061495000000004
B 4.440810000000E-01 -1.124940000000E-01 0.29124184999999997
N 3.886870000000E-01 -5.680400000000E-02 0.2921463
B 4.441920000000E-01 5.428800000000E-02 0.292092925
N 3.886870000000E-01 1.098750000000E-01 0.29214514999999996
B 4.440810000000E-01 2.209590000000E-01 0.29124145
N 3.886450000000E-01 2.764570000000E-01 0.29061455
B 4.429840000000E-01 3.874350000000E-01 0.28809070000000003
N 3.869750000000E-01 4.413230000000E-01 0.286958225
O -4.911500000000E-01 -4.133810000000E-01 0.25
